
This summary file was generated by TurbSim (v2.00.07a-bjj, 14-Jun-2016) on 25-Sep-2018 at 00:36:09.


Runtime Options:

     13428  Random seed #1
    RANLUX  Type of random number generator
         F  Output binary HH turbulence parameters?
         F  Output formatted turbulence parameters?
         F  Output AeroDyn HH files?
         T  Output AeroDyn FF files?
         F  Output BLADED FF files?
         T  Output tower data?
         F  Output formatted FF files?
         F  Output coherent turbulence time step file?
         T  Clockwise rotation when looking downwind?
 0 -  NONE  IEC turbulence models scaled to exact specified standard deviation


Turbine/Model Specifications:

        31  Vertical grid-point matrix dimension
        31  Horizontal grid-point matrix dimension
     0.050  Time step [seconds]
   630.000  Analysis time [seconds]
    60.000  Usable output time [seconds]
    90.000  Hub height [m]
   145.000  Grid height [m]
   145.000  Grid width [m]
     0.000  Vertical flow angle [degrees]
     0.000  Horizontal flow angle [degrees]


Meteorological Boundary Conditions:

    IECKAI  IEC Kaimal spectral model
         1  IEC standard: IEC 61400-1 Ed. 3: 2005
         B  IEC turbulence characteristic
       NTM  IEC Normal Turbulence Model
       N/A  IEC Extreme Turbulence Model (ETM) "c" parameter [m/s]
       PL   Wind profile type
    90.000  Reference height [m]
    11.400  Reference wind speed [m/s]
       N/A  Jet height [m]
     0.140  Power law exponent
     0.030  Surface roughness length [m]


Non-IEC Meteorological Boundary Conditions:

       N/A  Site latitude [degrees]
       N/A  Gradient Richardson number
       N/A  Friction or shear velocity [m/s]
       N/A  Mixing layer depth [m]
       N/A  Mean hub u'w' Reynolds stress
       N/A  Mean hub u'v' Reynolds stress
       N/A  Mean hub v'w' Reynolds stress


Spatial Coherence Models:

       IEC  u-component coherence model
      NONE  v-component coherence model
      NONE  w-component coherence model
(   12.000, 0.353E-03)  u-component coherence parameters
                   N/A  v-component coherence parameters
                   N/A  w-component coherence parameters
       N/A  Coherence exponent


You have requested that the following file(s) be generated:

   90m_11.4mps_twr.bts (AeroDyn/TurbSim full-field wind file)


Turbulence Simulation Scaling Parameter Summary:

   Turbulence model used                            =  IEC Kaimal
   Turbulence characteristic                        =  B
   IEC turbulence type                              =  Normal Turbulence Model
   IEC standard                                     =  IEC 61400-1 Ed. 3: 2005
   Mean wind speed at hub height                    =   11.400 m/s
   Expected value of turbulence intensity at 15 m/s =   14.000%
   Characteristic value of standard deviation       =    1.981 m/s
   Turbulence scale                                 =   42.000 m
   u-component integral scale                       =  340.200 m
   Coherency scale                                  =  340.200 m
   Characteristic value of hub turbulence intensity =   17.377%
   Gradient Richardson number                       =    0.000

   Wind profile type                                =  Power law
   Power law exponent                               =    0.140
   Mean shear across rotor disk                     =    0.023 (m/s)/m
   Assumed rotor diameter                           =  145.000 m
   Surface roughness length                         =    0.030 m

   Nyquist frequency of turbulent wind field        =   10.000 Hz

   Number of time steps in the FFT                  =    12600
   Number of time steps output                      =     1455
   Number of points simulated                       =      964


Mean Flow Angles:

   Vertical   =   0.0 degrees
   Horizontal =   0.0 degrees

Mean Wind Speed Profile:

   Height    Wind Speed   Horizontal Angle  Vertical Angle  U-comp (X)   V-comp (Y)   W-comp (Z)
     (m)        (m/s)         (degrees)       (degrees)       (m/s)        (m/s)        (m/s)   
   ------    ----------   ----------------  --------------  ----------   ----------   ----------
    162.5       12.38            0.00            0.00         12.38         0.00         0.00
    157.7       12.33            0.00            0.00         12.33         0.00         0.00
    152.8       12.28            0.00            0.00         12.28         0.00         0.00
    148.0       12.22            0.00            0.00         12.22         0.00         0.00
    143.2       12.17            0.00            0.00         12.17         0.00         0.00
    138.3       12.11            0.00            0.00         12.11         0.00         0.00
    133.5       12.05            0.00            0.00         12.05         0.00         0.00
    128.7       11.98            0.00            0.00         11.98         0.00         0.00
    123.8       11.92            0.00            0.00         11.92         0.00         0.00
    119.0       11.85            0.00            0.00         11.85         0.00         0.00
    114.2       11.79            0.00            0.00         11.79         0.00         0.00
    109.3       11.71            0.00            0.00         11.71         0.00         0.00
    104.5       11.64            0.00            0.00         11.64         0.00         0.00
     99.7       11.56            0.00            0.00         11.56         0.00         0.00
     94.8       11.48            0.00            0.00         11.48         0.00         0.00
     90.0       11.40            0.00            0.00         11.40         0.00         0.00
     85.2       11.31            0.00            0.00         11.31         0.00         0.00
     80.3       11.22            0.00            0.00         11.22         0.00         0.00
     75.5       11.12            0.00            0.00         11.12         0.00         0.00
     70.7       11.02            0.00            0.00         11.02         0.00         0.00
     65.8       10.91            0.00            0.00         10.91         0.00         0.00
     61.0       10.80            0.00            0.00         10.80         0.00         0.00
     56.2       10.67            0.00            0.00         10.67         0.00         0.00
     51.3       10.54            0.00            0.00         10.54         0.00         0.00
     46.5       10.39            0.00            0.00         10.39         0.00         0.00
     41.7       10.23            0.00            0.00         10.23         0.00         0.00
     36.8       10.06            0.00            0.00         10.06         0.00         0.00
     32.0        9.86            0.00            0.00          9.86         0.00         0.00
     27.2        9.64            0.00            0.00          9.64         0.00         0.00
     22.3        9.38            0.00            0.00          9.38         0.00         0.00
     17.5        9.06            0.00            0.00          9.06         0.00         0.00
     12.7        8.66            0.00            0.00          8.66         0.00         0.00
      7.8        8.10            0.00            0.00          8.10         0.00         0.00
      3.0        7.08            0.00            0.00          7.08         0.00         0.00


Harvested Random Seeds after Generation of the Random Numbers:

    169290450 K 1
            0 K 2


Hub-Height Simulated Turbulence Statistical Summary:

   Type of Wind        Min (m/s)   Mean (m/s)    Max (m/s)  Sigma (m/s)       TI (%)
   ----------------    ---------   ----------    ---------  -----------       ------
   Longitudinal (u)         6.35        11.40        16.44        1.597       14.005
   Lateral (v)             -5.60        -0.00         5.18        1.549       13.586
   Vertical (w)            -3.42        -0.00         3.29        0.969        8.497
   U component              6.35        11.40        16.44        1.597       14.005
   V component             -5.60        -0.00         5.18        1.549       13.586
   W component             -3.42        -0.00         3.29        0.969        8.497
   Horizontal (U&V)         6.50        11.51        16.44        1.582       13.753
   Total                    6.55        11.55        16.46        1.581       13.692

                       Min Reynolds     Mean Reynolds    Max Reynolds    Correlation
   Product             Stress (m/s)^2   Stress (m/s)^2   Stress (m/s)^2  Coefficient
   ----------------    --------------   --------------   --------------  -----------
   u'w'                     -8.957             0.140             9.171         0.090
   u'v'                    -12.826             0.415            19.182         0.168
   v'w'                     -7.767             0.226            13.695         0.151


   Friction Velocity (Ustar)  =      0.374 m/s
   Maximum Instantaneous TKE  =     21.450 (m/s)^2
   Maximum Instantaneous CTKE =     10.079 (m/s)^2


Grid Point Variance Summary:

   Y-coord  -72.50  -67.67  -62.83  -58.00  -53.17  -48.33  -43.50  -38.67  -33.83  -29.00  -24.17  -19.33  -14.50   -9.67   -4.83    0.00    4.83    9.67   14.50   19.33   24.17   29.00   33.83   38.67   43.50   48.33   53.17   58.00   62.83   67.67   72.50

   Height   Standard deviation at grid points for the u component:
   162.50    1.753   1.717   1.790   1.697   1.738   1.817   1.770   1.793   1.865   1.839   1.867   1.878   1.825   1.743   1.855   1.839   1.822   1.769   1.737   1.744   1.838   1.809   1.848   1.953   1.879   1.942   1.917   1.926   1.853   1.965   2.085
   157.67    1.781   1.719   1.712   1.703   1.705   1.691   1.781   1.706   1.809   1.757   1.755   1.746   1.786   1.839   1.804   1.825   1.777   1.738   1.746   1.761   1.805   1.769   1.867   1.876   1.922   2.019   1.998   1.848   1.862   1.983   2.088
   152.83    1.777   1.700   1.743   1.703   1.740   1.636   1.710   1.798   1.796   1.708   1.807   1.723   1.731   1.898   1.792   1.741   1.758   1.704   1.677   1.824   1.788   1.883   1.927   1.955   1.958   2.008   1.942   2.019   1.915   2.060   2.158
   148.00    1.843   1.790   1.830   1.822   1.664   1.664   1.677   1.646   1.803   1.850   1.752   1.822   1.886   1.880   1.901   1.834   1.783   1.671   1.752   1.867   1.766   1.949   1.883   1.875   1.938   1.990   1.994   1.976   2.147   2.060   2.117
   143.17    1.729   1.825   1.842   1.703   1.711   1.784   1.701   1.748   1.756   1.811   1.843   1.842   1.933   2.024   1.827   1.850   1.734   1.779   1.775   1.857   1.887   1.897   1.858   1.923   1.974   2.049   1.871   1.899   2.049   2.101   1.990
   138.33    1.728   1.799   1.859   1.686   1.729   1.719   1.812   1.770   1.874   1.901   1.976   1.969   1.960   1.956   1.879   1.881   1.780   1.795   1.829   1.825   1.773   1.877   1.912   1.848   1.868   1.960   1.850   1.859   1.940   1.948   1.958
   133.50    1.702   1.781   1.791   1.690   1.710   1.855   1.765   1.803   1.853   1.985   1.954   2.049   1.869   1.874   1.847   1.802   1.748   1.838   1.764   1.671   1.679   1.754   1.863   1.911   1.889   1.990   1.881   1.895   1.894   1.834   1.788
   128.67    1.765   1.761   1.712   1.658   1.678   1.752   1.849   1.822   1.902   1.912   1.955   1.979   1.882   1.925   1.875   1.789   1.760   1.783   1.748   1.659   1.721   1.747   1.830   1.872   1.978   1.956   1.858   1.828   1.868   1.791   1.804
   123.83    1.700   1.583   1.730   1.659   1.755   1.783   1.835   1.937   1.849   1.888   1.983   1.995   1.896   1.857   1.839   1.757   1.774   1.792   1.776   1.723   1.718   1.704   1.709   1.824   1.919   1.923   1.899   1.823   1.729   1.751   1.771
   119.00    1.592   1.642   1.713   1.684   1.708   1.716   1.785   1.887   1.838   1.882   1.904   1.942   1.834   1.856   1.773   1.854   1.732   1.716   1.666   1.737   1.646   1.670   1.587   1.724   1.834   1.893   1.845   1.849   1.841   1.805   1.773
   114.17    1.763   1.706   1.707   1.691   1.660   1.690   1.745   1.807   1.900   1.836   1.850   1.775   1.818   1.810   1.822   1.706   1.675   1.668   1.585   1.620   1.693   1.739   1.724   1.672   1.765   1.674   1.792   1.893   1.836   1.773   1.726
   109.33    1.866   1.785   1.723   1.680   1.591   1.636   1.738   1.838   1.812   1.757   1.713   1.628   1.651   1.709   1.628   1.702   1.676   1.670   1.698   1.647   1.560   1.652   1.608   1.641   1.641   1.731   1.745   1.856   1.822   1.768   1.712
   104.50    1.880   1.933   1.901   1.742   1.724   1.688   1.783   1.883   1.886   1.855   1.722   1.701   1.535   1.624   1.595   1.577   1.598   1.696   1.644   1.629   1.643   1.681   1.645   1.658   1.719   1.606   1.720   1.760   1.820   1.845   1.762
    99.67    1.917   1.913   1.776   1.769   1.748   1.768   1.785   1.792   1.810   1.858   1.766   1.692   1.725   1.667   1.679   1.609   1.617   1.594   1.595   1.600   1.664   1.614   1.709   1.706   1.694   1.626   1.707   1.631   1.731   1.645   1.615
    94.83    1.847   1.902   1.695   1.716   1.786   1.837   1.788   1.697   1.733   1.733   1.750   1.715   1.728   1.687   1.653   1.589   1.551   1.547   1.665   1.687   1.751   1.684   1.719   1.805   1.665   1.586   1.649   1.636   1.642   1.597   1.572
    90.00    1.960   1.885   1.820   1.904   1.993   1.843   1.807   1.798   1.726   1.758   1.752   1.830   1.821   1.735   1.632   1.597   1.619   1.669   1.713   1.672   1.733   1.787   1.729   1.795   1.704   1.621   1.582   1.547   1.578   1.521   1.571
    85.17    1.886   1.974   1.971   1.939   2.028   1.928   1.902   1.756   1.789   1.836   1.806   1.885   1.907   1.810   1.669   1.657   1.616   1.715   1.742   1.813   1.769   1.783   1.772   1.739   1.823   1.576   1.528   1.505   1.527   1.585   1.603
    80.33    1.827   1.914   1.871   1.911   1.982   1.906   1.873   1.889   1.757   1.801   1.811   1.791   1.903   1.848   1.821   1.681   1.704   1.787   1.727   1.821   1.774   1.835   1.769   1.710   1.670   1.605   1.495   1.482   1.567   1.623   1.635
    75.50    1.934   1.957   1.876   1.865   1.957   1.897   1.820   1.809   1.654   1.785   1.835   1.889   1.944   1.882   1.920   1.882   1.733   1.797   1.754   1.802   1.745   1.796   1.754   1.718   1.703   1.713   1.606   1.525   1.535   1.649   1.655
    70.67    2.028   2.034   1.999   1.997   2.016   1.955   1.850   1.813   1.631   1.705   1.859   1.963   1.942   1.902   1.890   1.861   1.830   1.860   1.802   1.804   1.820   1.846   1.830   1.752   1.777   1.800   1.711   1.664   1.547   1.640   1.611
    65.83    2.070   1.999   2.014   1.999   2.056   1.939   1.927   1.753   1.726   1.827   1.871   1.920   1.937   1.913   1.837   1.892   1.814   1.760   1.913   1.843   1.903   1.925   1.809   1.817   1.809   1.809   1.599   1.598   1.563   1.625   1.611
    61.00    2.051   2.067   1.982   1.950   1.965   2.020   1.870   1.857   1.805   1.818   1.749   1.882   1.908   1.901   1.886   1.862   1.886   1.828   1.887   1.876   1.855   1.871   1.701   1.736   1.749   1.643   1.673   1.654   1.624   1.569   1.533
    56.17    1.980   2.090   2.051   2.061   1.944   1.979   1.934   1.832   1.842   1.865   1.742   1.821   1.870   1.901   1.892   1.845   1.875   1.905   1.922   1.852   1.801   1.759   1.768   1.663   1.704   1.759   1.736   1.660   1.608   1.610   1.615
    51.33    1.900   2.032   2.044   2.006   1.952   1.948   1.950   1.962   1.896   1.882   1.748   1.900   1.929   1.870   1.891   1.777   1.901   1.824   1.817   1.808   1.859   1.711   1.776   1.755   1.758   1.820   1.787   1.636   1.734   1.670   1.647
    46.50    1.947   1.972   1.997   2.066   1.973   1.901   1.955   1.927   1.917   1.943   1.852   1.902   1.976   1.945   1.859   1.830   1.798   1.794   1.756   1.749   1.702   1.790   1.771   1.768   1.740   1.808   1.756   1.685   1.737   1.677   1.645
    41.67    1.872   1.933   2.074   2.072   2.096   1.973   1.923   1.842   1.942   1.900   1.932   1.961   2.013   1.982   1.874   1.809   1.705   1.743   1.759   1.700   1.797   1.756   1.710   1.766   1.682   1.751   1.692   1.709   1.722   1.714   1.616
    36.83    1.745   1.977   2.007   2.032   1.946   1.957   1.915   1.868   1.895   1.922   1.851   1.931   1.945   1.910   1.895   1.796   1.751   1.758   1.730   1.687   1.813   1.811   1.821   1.703   1.802   1.658   1.690   1.654   1.622   1.702   1.659
    32.00    1.873   1.859   1.984   1.956   1.981   2.043   1.889   1.827   1.884   1.861   1.813   1.940   1.906   1.928   1.911   1.885   1.779   1.754   1.748   1.688   1.678   1.756   1.774   1.711   1.711   1.635   1.658   1.637   1.584   1.607   1.691
    27.17    1.845   1.904   2.012   1.985   2.035   2.042   1.943   1.874   1.843   1.965   1.931   1.904   1.965   1.954   1.850   1.817   1.808   1.675   1.630   1.695   1.692   1.744   1.740   1.702   1.653   1.733   1.697   1.711   1.652   1.639   1.585
    22.33    1.865   1.800   1.926   1.963   2.049   1.997   1.983   1.955   1.929   1.998   1.937   1.916   2.042   1.973   1.894   1.806   1.785   1.753   1.715   1.702   1.606   1.646   1.673   1.726   1.670   1.680   1.780   1.688   1.671   1.721   1.721
    17.50    1.885   1.859   1.914   1.924   1.982   1.933   1.914   1.876   1.807   1.883   1.912   2.023   2.029   1.999   2.013   1.891   1.886   1.832   1.770   1.674   1.641   1.638   1.691   1.779   1.773   1.707   1.752   1.649   1.699   1.628   1.798

   Height   Standard deviation at grid points for the v component:
   162.50    1.549   1.549   1.549   1.549   1.549   1.549   1.549   1.549   1.549   1.549   1.549   1.549   1.549   1.549   1.549   1.549   1.549   1.549   1.549   1.549   1.549   1.549   1.549   1.549   1.549   1.549   1.549   1.549   1.549   1.549   1.549
   157.67    1.549   1.549   1.549   1.549   1.549   1.549   1.549   1.549   1.549   1.549   1.549   1.549   1.549   1.549   1.549   1.549   1.549   1.549   1.549   1.549   1.549   1.549   1.549   1.549   1.549   1.549   1.549   1.549   1.549   1.549   1.549
   152.83    1.549   1.549   1.549   1.549   1.549   1.549   1.549   1.549   1.549   1.549   1.549   1.549   1.549   1.549   1.549   1.549   1.549   1.549   1.549   1.549   1.549   1.549   1.549   1.549   1.549   1.549   1.549   1.549   1.549   1.549   1.549
   148.00    1.549   1.549   1.549   1.549   1.549   1.549   1.549   1.549   1.549   1.549   1.549   1.549   1.549   1.549   1.549   1.549   1.549   1.549   1.549   1.549   1.549   1.549   1.549   1.549   1.549   1.549   1.549   1.549   1.549   1.549   1.549
   143.17    1.549   1.549   1.549   1.549   1.549   1.549   1.549   1.549   1.549   1.549   1.549   1.549   1.549   1.549   1.549   1.549   1.549   1.549   1.549   1.549   1.549   1.549   1.549   1.549   1.549   1.549   1.549   1.549   1.549   1.549   1.549
   138.33    1.549   1.549   1.549   1.549   1.549   1.549   1.549   1.549   1.549   1.549   1.549   1.549   1.549   1.549   1.549   1.549   1.549   1.549   1.549   1.549   1.549   1.549   1.549   1.549   1.549   1.549   1.549   1.549   1.549   1.549   1.549
   133.50    1.549   1.549   1.549   1.549   1.549   1.549   1.549   1.549   1.549   1.549   1.549   1.549   1.549   1.549   1.549   1.549   1.549   1.549   1.549   1.549   1.549   1.549   1.549   1.549   1.549   1.549   1.549   1.549   1.549   1.549   1.549
   128.67    1.549   1.549   1.549   1.549   1.549   1.549   1.549   1.549   1.549   1.549   1.549   1.549   1.549   1.549   1.549   1.549   1.549   1.549   1.549   1.549   1.549   1.549   1.549   1.549   1.549   1.549   1.549   1.549   1.549   1.549   1.549
   123.83    1.549   1.549   1.549   1.549   1.549   1.549   1.549   1.549   1.549   1.549   1.549   1.549   1.549   1.549   1.549   1.549   1.549   1.549   1.549   1.549   1.549   1.549   1.549   1.549   1.549   1.549   1.549   1.549   1.549   1.549   1.549
   119.00    1.549   1.549   1.549   1.549   1.549   1.549   1.549   1.549   1.549   1.549   1.549   1.549   1.549   1.549   1.549   1.549   1.549   1.549   1.549   1.549   1.549   1.549   1.549   1.549   1.549   1.549   1.549   1.549   1.549   1.549   1.549
   114.17    1.549   1.549   1.549   1.549   1.549   1.549   1.549   1.549   1.549   1.549   1.549   1.549   1.549   1.549   1.549   1.549   1.549   1.549   1.549   1.549   1.549   1.549   1.549   1.549   1.549   1.549   1.549   1.549   1.549   1.549   1.549
   109.33    1.549   1.549   1.549   1.549   1.549   1.549   1.549   1.549   1.549   1.549   1.549   1.549   1.549   1.549   1.549   1.549   1.549   1.549   1.549   1.549   1.549   1.549   1.549   1.549   1.549   1.549   1.549   1.549   1.549   1.549   1.549
   104.50    1.549   1.549   1.549   1.549   1.549   1.549   1.549   1.549   1.549   1.549   1.549   1.549   1.549   1.549   1.549   1.549   1.549   1.549   1.549   1.549   1.549   1.549   1.549   1.549   1.549   1.549   1.549   1.549   1.549   1.549   1.549
    99.67    1.549   1.549   1.549   1.549   1.549   1.549   1.549   1.549   1.549   1.549   1.549   1.549   1.549   1.549   1.549   1.549   1.549   1.549   1.549   1.549   1.549   1.549   1.549   1.549   1.549   1.549   1.549   1.549   1.549   1.549   1.549
    94.83    1.549   1.549   1.549   1.549   1.549   1.549   1.549   1.549   1.549   1.549   1.549   1.549   1.549   1.549   1.549   1.549   1.549   1.549   1.549   1.549   1.549   1.549   1.549   1.549   1.549   1.549   1.549   1.549   1.549   1.549   1.549
    90.00    1.549   1.549   1.549   1.549   1.549   1.549   1.549   1.549   1.549   1.549   1.549   1.549   1.549   1.549   1.549   1.549   1.549   1.549   1.549   1.549   1.549   1.549   1.549   1.549   1.549   1.549   1.549   1.549   1.549   1.549   1.549
    85.17    1.549   1.549   1.549   1.549   1.549   1.549   1.549   1.549   1.549   1.549   1.549   1.549   1.549   1.549   1.549   1.549   1.549   1.549   1.549   1.549   1.549   1.549   1.549   1.549   1.549   1.549   1.549   1.549   1.549   1.549   1.549
    80.33    1.549   1.549   1.549   1.549   1.549   1.549   1.549   1.549   1.549   1.549   1.549   1.549   1.549   1.549   1.549   1.549   1.549   1.549   1.549   1.549   1.549   1.549   1.549   1.549   1.549   1.549   1.549   1.549   1.549   1.549   1.549
    75.50    1.549   1.549   1.549   1.549   1.549   1.549   1.549   1.549   1.549   1.549   1.549   1.549   1.549   1.549   1.549   1.549   1.549   1.549   1.549   1.549   1.549   1.549   1.549   1.549   1.549   1.549   1.549   1.549   1.549   1.549   1.549
    70.67    1.549   1.549   1.549   1.549   1.549   1.549   1.549   1.549   1.549   1.549   1.549   1.549   1.549   1.549   1.549   1.549   1.549   1.549   1.549   1.549   1.549   1.549   1.549   1.549   1.549   1.549   1.549   1.549   1.549   1.549   1.549
    65.83    1.549   1.549   1.549   1.549   1.549   1.549   1.549   1.549   1.549   1.549   1.549   1.549   1.549   1.549   1.549   1.549   1.549   1.549   1.549   1.549   1.549   1.549   1.549   1.549   1.549   1.549   1.549   1.549   1.549   1.549   1.549
    61.00    1.549   1.549   1.549   1.549   1.549   1.549   1.549   1.549   1.549   1.549   1.549   1.549   1.549   1.549   1.549   1.549   1.549   1.549   1.549   1.549   1.549   1.549   1.549   1.549   1.549   1.549   1.549   1.549   1.549   1.549   1.549
    56.17    1.549   1.549   1.549   1.549   1.549   1.549   1.549   1.549   1.549   1.549   1.549   1.549   1.549   1.549   1.549   1.549   1.549   1.549   1.549   1.549   1.549   1.549   1.549   1.549   1.549   1.549   1.549   1.549   1.549   1.549   1.549
    51.33    1.549   1.549   1.549   1.549   1.549   1.549   1.549   1.549   1.549   1.549   1.549   1.549   1.549   1.549   1.549   1.549   1.549   1.549   1.549   1.549   1.549   1.549   1.549   1.549   1.549   1.549   1.549   1.549   1.549   1.549   1.549
    46.50    1.549   1.549   1.549   1.549   1.549   1.549   1.549   1.549   1.549   1.549   1.549   1.549   1.549   1.549   1.549   1.549   1.549   1.549   1.549   1.549   1.549   1.549   1.549   1.549   1.549   1.549   1.549   1.549   1.549   1.549   1.549
    41.67    1.549   1.549   1.549   1.549   1.549   1.549   1.549   1.549   1.549   1.549   1.549   1.549   1.549   1.549   1.549   1.549   1.549   1.549   1.549   1.549   1.549   1.549   1.549   1.549   1.549   1.549   1.549   1.549   1.549   1.549   1.549
    36.83    1.549   1.549   1.549   1.549   1.549   1.549   1.549   1.549   1.549   1.549   1.549   1.549   1.549   1.549   1.549   1.549   1.549   1.549   1.549   1.549   1.549   1.549   1.549   1.549   1.549   1.549   1.549   1.549   1.549   1.549   1.549
    32.00    1.549   1.549   1.549   1.549   1.549   1.549   1.549   1.549   1.549   1.549   1.549   1.549   1.549   1.549   1.549   1.549   1.549   1.549   1.549   1.549   1.549   1.549   1.549   1.549   1.549   1.549   1.549   1.549   1.549   1.549   1.549
    27.17    1.549   1.549   1.549   1.549   1.549   1.549   1.549   1.549   1.549   1.549   1.549   1.549   1.549   1.549   1.549   1.549   1.549   1.549   1.549   1.549   1.549   1.549   1.549   1.549   1.549   1.549   1.549   1.549   1.549   1.549   1.549
    22.33    1.549   1.549   1.549   1.549   1.549   1.549   1.549   1.549   1.549   1.549   1.549   1.549   1.549   1.549   1.549   1.549   1.549   1.549   1.549   1.549   1.549   1.549   1.549   1.549   1.549   1.549   1.549   1.549   1.549   1.549   1.549
    17.50    1.549   1.549   1.549   1.549   1.549   1.549   1.549   1.549   1.549   1.549   1.549   1.549   1.549   1.549   1.549   1.549   1.549   1.549   1.549   1.549   1.549   1.549   1.549   1.549   1.549   1.549   1.549   1.549   1.549   1.549   1.549

   Height   Standard deviation at grid points for the w component:
   162.50    0.969   0.969   0.969   0.969   0.969   0.969   0.969   0.969   0.969   0.969   0.969   0.969   0.969   0.969   0.969   0.969   0.969   0.969   0.969   0.969   0.969   0.969   0.969   0.969   0.969   0.969   0.969   0.969   0.969   0.969   0.969
   157.67    0.969   0.969   0.969   0.969   0.969   0.969   0.969   0.969   0.969   0.969   0.969   0.969   0.969   0.969   0.969   0.969   0.969   0.969   0.969   0.969   0.969   0.969   0.969   0.969   0.969   0.969   0.969   0.969   0.969   0.969   0.969
   152.83    0.969   0.969   0.969   0.969   0.969   0.969   0.969   0.969   0.969   0.969   0.969   0.969   0.969   0.969   0.969   0.969   0.969   0.969   0.969   0.969   0.969   0.969   0.969   0.969   0.969   0.969   0.969   0.969   0.969   0.969   0.969
   148.00    0.969   0.969   0.969   0.969   0.969   0.969   0.969   0.969   0.969   0.969   0.969   0.969   0.969   0.969   0.969   0.969   0.969   0.969   0.969   0.969   0.969   0.969   0.969   0.969   0.969   0.969   0.969   0.969   0.969   0.969   0.969
   143.17    0.969   0.969   0.969   0.969   0.969   0.969   0.969   0.969   0.969   0.969   0.969   0.969   0.969   0.969   0.969   0.969   0.969   0.969   0.969   0.969   0.969   0.969   0.969   0.969   0.969   0.969   0.969   0.969   0.969   0.969   0.969
   138.33    0.969   0.969   0.969   0.969   0.969   0.969   0.969   0.969   0.969   0.969   0.969   0.969   0.969   0.969   0.969   0.969   0.969   0.969   0.969   0.969   0.969   0.969   0.969   0.969   0.969   0.969   0.969   0.969   0.969   0.969   0.969
   133.50    0.969   0.969   0.969   0.969   0.969   0.969   0.969   0.969   0.969   0.969   0.969   0.969   0.969   0.969   0.969   0.969   0.969   0.969   0.969   0.969   0.969   0.969   0.969   0.969   0.969   0.969   0.969   0.969   0.969   0.969   0.969
   128.67    0.969   0.969   0.969   0.969   0.969   0.969   0.969   0.969   0.969   0.969   0.969   0.969   0.969   0.969   0.969   0.969   0.969   0.969   0.969   0.969   0.969   0.969   0.969   0.969   0.969   0.969   0.969   0.969   0.969   0.969   0.969
   123.83    0.969   0.969   0.969   0.969   0.969   0.969   0.969   0.969   0.969   0.969   0.969   0.969   0.969   0.969   0.969   0.969   0.969   0.969   0.969   0.969   0.969   0.969   0.969   0.969   0.969   0.969   0.969   0.969   0.969   0.969   0.969
   119.00    0.969   0.969   0.969   0.969   0.969   0.969   0.969   0.969   0.969   0.969   0.969   0.969   0.969   0.969   0.969   0.969   0.969   0.969   0.969   0.969   0.969   0.969   0.969   0.969   0.969   0.969   0.969   0.969   0.969   0.969   0.969
   114.17    0.969   0.969   0.969   0.969   0.969   0.969   0.969   0.969   0.969   0.969   0.969   0.969   0.969   0.969   0.969   0.969   0.969   0.969   0.969   0.969   0.969   0.969   0.969   0.969   0.969   0.969   0.969   0.969   0.969   0.969   0.969
   109.33    0.969   0.969   0.969   0.969   0.969   0.969   0.969   0.969   0.969   0.969   0.969   0.969   0.969   0.969   0.969   0.969   0.969   0.969   0.969   0.969   0.969   0.969   0.969   0.969   0.969   0.969   0.969   0.969   0.969   0.969   0.969
   104.50    0.969   0.969   0.969   0.969   0.969   0.969   0.969   0.969   0.969   0.969   0.969   0.969   0.969   0.969   0.969   0.969   0.969   0.969   0.969   0.969   0.969   0.969   0.969   0.969   0.969   0.969   0.969   0.969   0.969   0.969   0.969
    99.67    0.969   0.969   0.969   0.969   0.969   0.969   0.969   0.969   0.969   0.969   0.969   0.969   0.969   0.969   0.969   0.969   0.969   0.969   0.969   0.969   0.969   0.969   0.969   0.969   0.969   0.969   0.969   0.969   0.969   0.969   0.969
    94.83    0.969   0.969   0.969   0.969   0.969   0.969   0.969   0.969   0.969   0.969   0.969   0.969   0.969   0.969   0.969   0.969   0.969   0.969   0.969   0.969   0.969   0.969   0.969   0.969   0.969   0.969   0.969   0.969   0.969   0.969   0.969
    90.00    0.969   0.969   0.969   0.969   0.969   0.969   0.969   0.969   0.969   0.969   0.969   0.969   0.969   0.969   0.969   0.969   0.969   0.969   0.969   0.969   0.969   0.969   0.969   0.969   0.969   0.969   0.969   0.969   0.969   0.969   0.969
    85.17    0.969   0.969   0.969   0.969   0.969   0.969   0.969   0.969   0.969   0.969   0.969   0.969   0.969   0.969   0.969   0.969   0.969   0.969   0.969   0.969   0.969   0.969   0.969   0.969   0.969   0.969   0.969   0.969   0.969   0.969   0.969
    80.33    0.969   0.969   0.969   0.969   0.969   0.969   0.969   0.969   0.969   0.969   0.969   0.969   0.969   0.969   0.969   0.969   0.969   0.969   0.969   0.969   0.969   0.969   0.969   0.969   0.969   0.969   0.969   0.969   0.969   0.969   0.969
    75.50    0.969   0.969   0.969   0.969   0.969   0.969   0.969   0.969   0.969   0.969   0.969   0.969   0.969   0.969   0.969   0.969   0.969   0.969   0.969   0.969   0.969   0.969   0.969   0.969   0.969   0.969   0.969   0.969   0.969   0.969   0.969
    70.67    0.969   0.969   0.969   0.969   0.969   0.969   0.969   0.969   0.969   0.969   0.969   0.969   0.969   0.969   0.969   0.969   0.969   0.969   0.969   0.969   0.969   0.969   0.969   0.969   0.969   0.969   0.969   0.969   0.969   0.969   0.969
    65.83    0.969   0.969   0.969   0.969   0.969   0.969   0.969   0.969   0.969   0.969   0.969   0.969   0.969   0.969   0.969   0.969   0.969   0.969   0.969   0.969   0.969   0.969   0.969   0.969   0.969   0.969   0.969   0.969   0.969   0.969   0.969
    61.00    0.969   0.969   0.969   0.969   0.969   0.969   0.969   0.969   0.969   0.969   0.969   0.969   0.969   0.969   0.969   0.969   0.969   0.969   0.969   0.969   0.969   0.969   0.969   0.969   0.969   0.969   0.969   0.969   0.969   0.969   0.969
    56.17    0.969   0.969   0.969   0.969   0.969   0.969   0.969   0.969   0.969   0.969   0.969   0.969   0.969   0.969   0.969   0.969   0.969   0.969   0.969   0.969   0.969   0.969   0.969   0.969   0.969   0.969   0.969   0.969   0.969   0.969   0.969
    51.33    0.969   0.969   0.969   0.969   0.969   0.969   0.969   0.969   0.969   0.969   0.969   0.969   0.969   0.969   0.969   0.969   0.969   0.969   0.969   0.969   0.969   0.969   0.969   0.969   0.969   0.969   0.969   0.969   0.969   0.969   0.969
    46.50    0.969   0.969   0.969   0.969   0.969   0.969   0.969   0.969   0.969   0.969   0.969   0.969   0.969   0.969   0.969   0.969   0.969   0.969   0.969   0.969   0.969   0.969   0.969   0.969   0.969   0.969   0.969   0.969   0.969   0.969   0.969
    41.67    0.969   0.969   0.969   0.969   0.969   0.969   0.969   0.969   0.969   0.969   0.969   0.969   0.969   0.969   0.969   0.969   0.969   0.969   0.969   0.969   0.969   0.969   0.969   0.969   0.969   0.969   0.969   0.969   0.969   0.969   0.969
    36.83    0.969   0.969   0.969   0.969   0.969   0.969   0.969   0.969   0.969   0.969   0.969   0.969   0.969   0.969   0.969   0.969   0.969   0.969   0.969   0.969   0.969   0.969   0.969   0.969   0.969   0.969   0.969   0.969   0.969   0.969   0.969
    32.00    0.969   0.969   0.969   0.969   0.969   0.969   0.969   0.969   0.969   0.969   0.969   0.969   0.969   0.969   0.969   0.969   0.969   0.969   0.969   0.969   0.969   0.969   0.969   0.969   0.969   0.969   0.969   0.969   0.969   0.969   0.969
    27.17    0.969   0.969   0.969   0.969   0.969   0.969   0.969   0.969   0.969   0.969   0.969   0.969   0.969   0.969   0.969   0.969   0.969   0.969   0.969   0.969   0.969   0.969   0.969   0.969   0.969   0.969   0.969   0.969   0.969   0.969   0.969
    22.33    0.969   0.969   0.969   0.969   0.969   0.969   0.969   0.969   0.969   0.969   0.969   0.969   0.969   0.969   0.969   0.969   0.969   0.969   0.969   0.969   0.969   0.969   0.969   0.969   0.969   0.969   0.969   0.969   0.969   0.969   0.969
    17.50    0.969   0.969   0.969   0.969   0.969   0.969   0.969   0.969   0.969   0.969   0.969   0.969   0.969   0.969   0.969   0.969   0.969   0.969   0.969   0.969   0.969   0.969   0.969   0.969   0.969   0.969   0.969   0.969   0.969   0.969   0.969

   Mean standard deviation across all grid points:
      u component:    1.802 m/s
      v component:    1.549 m/s
      w component:    0.969 m/s


U-component (X) statistics from the interpolated hub point:

   Mean =  11.4000 m/s
   TI   =  14.0045 %


Processing complete.  243.02 CPU seconds used.
